
 OpenBabel06262516023D

162171  0  0  1  0  0  0  0  0999 V2000
    6.3656   12.2604   -0.0766 H   0  0  0  0  0  0  0  0  0  0  0  0
    7.1824   12.3519    0.6463 C   0  0  0  0  0  0  0  0  0  0  0  0
    7.8754   10.9862    0.8641 C   0  0  2  0  0  0  0  0  0  0  0  0
    6.7718    9.9547    1.4113 C   0  0  0  0  0  0  0  0  0  0  0  0
    7.1343    8.5325    2.1058 C   0  0  2  0  0  0  0  0  0  0  0  0
    7.9872    8.8927    3.3220 C   0  0  0  0  0  0  0  0  0  0  0  0
    7.6399   10.0395    4.0948 C   0  0  0  0  0  0  0  0  0  0  0  0
    8.4071   10.5197    5.1571 C   0  0  0  0  0  0  0  0  0  0  0  0
    9.5340    9.8227    5.5335 C   0  0  0  0  0  0  0  0  0  0  0  0
    9.8648    8.6547    4.8457 C   0  0  0  0  0  0  0  0  0  0  0  0
    9.1054    8.1952    3.7473 C   0  0  0  0  0  0  0  0  0  0  0  0
    9.2450   11.2522    1.5254 C   0  0  0  0  0  0  0  0  0  0  0  0
    9.4429   12.0253    2.6808 C   0  0  0  0  0  0  0  0  0  0  0  0
   10.6835   12.0594    3.3444 C   0  0  0  0  0  0  0  0  0  0  0  0
   11.7845   11.4071    2.8040 C   0  0  0  0  0  0  0  0  0  0  0  0
   11.6662   10.8383    1.5435 C   0  0  0  0  0  0  0  0  0  0  0  0
   10.4110   10.7633    0.9143 C   0  0  0  0  0  0  0  0  0  0  0  0
    7.4292    7.4769    0.9305 C   0  0  0  0  0  0  0  0  0  0  0  0
    7.4578    5.8379    0.7313 C   0  0  2  0  0  0  0  0  0  0  0  0
    8.6109    4.9536    1.4420 C   0  0  0  0  0  0  0  0  0  0  0  0
    8.4421    3.9052    2.6771 C   0  0  2  0  0  0  0  0  0  0  0  0
    8.0895    4.4709    4.0932 C   0  0  0  0  0  0  0  0  0  0  0  0
    6.8780    4.5135    4.8033 C   0  0  0  0  0  0  0  0  0  0  0  0
    6.8197    5.0426    6.1451 C   0  0  0  0  0  0  0  0  0  0  0  0
    7.9554    5.4675    6.8196 C   0  0  0  0  0  0  0  0  0  0  0  0
    9.1476    5.4162    6.1494 C   0  0  0  0  0  0  0  0  0  0  0  0
    9.1363    4.9975    4.8211 C   0  0  0  0  0  0  0  0  0  0  0  0
    7.5214    5.5990   -0.8975 C   0  0  0  0  0  0  0  0  0  0  0  0
    7.5187    6.6596   -1.8443 C   0  0  0  0  0  0  0  0  0  0  0  0
    7.5688    6.4644   -3.2391 C   0  0  0  0  0  0  0  0  0  0  0  0
    7.6269    5.1767   -3.7628 C   0  0  0  0  0  0  0  0  0  0  0  0
    7.6136    4.1075   -2.8727 C   0  0  0  0  0  0  0  0  0  0  0  0
    7.5511    4.3048   -1.4677 C   0  0  0  0  0  0  0  0  0  0  0  0
    9.7613    2.7395    2.7096 C   0  0  0  0  0  0  0  0  0  0  0  0
   11.3738    2.9794    2.6846 C   0  0  2  0  0  0  0  0  0  0  0  0
   12.4049    1.8339    3.3126 C   0  0  0  0  0  0  0  0  0  0  0  0
   14.1188    1.9105    3.6809 C   0  0  2  0  0  0  0  0  0  0  0  0
   14.4767    0.4529    4.0098 C   0  0  0  0  0  0  0  0  0  0  0  0
   14.1570   -0.5476    3.0797 C   0  0  0  0  0  0  0  0  0  0  0  0
   14.2406   -1.8758    3.4023 C   0  0  0  0  0  0  0  0  0  0  0  0
   14.7506   -2.2617    4.6422 C   0  0  0  0  0  0  0  0  0  0  0  0
   15.1713   -1.2952    5.5523 C   0  0  0  0  0  0  0  0  0  0  0  0
   14.9979    0.0401    5.2509 C   0  0  0  0  0  0  0  0  0  0  0  0
   11.6949    4.1922    3.3943 C   0  0  0  0  0  0  0  0  0  0  0  0
   11.9598    4.0099    4.7118 C   0  0  0  0  0  0  0  0  0  0  0  0
   12.8014    4.9588    5.1181 C   0  0  0  0  0  0  0  0  0  0  0  0
   13.0973    6.1567    4.3842 C   0  0  0  0  0  0  0  0  0  0  0  0
   12.3985    6.5006    3.2740 C   0  0  0  0  0  0  0  0  0  0  0  0
   11.7817    5.4375    2.7222 C   0  0  0  0  0  0  0  0  0  0  0  0
   14.8950    2.8668    4.7758 C   0  0  0  0  0  0  0  0  0  0  0  0
   16.5119    2.9564    4.9447 C   0  0  2  0  0  0  0  0  0  0  0  0
   16.9775    3.6798    6.3336 C   0  0  0  0  0  0  0  0  0  0  0  0
   17.0856    5.2195    6.9156 C   0  0  2  0  0  0  0  0  0  0  0  0
   15.8491    6.0917    7.3442 C   0  0  0  0  0  0  0  0  0  0  0  0
   15.7334    6.9854    8.4290 C   0  0  0  0  0  0  0  0  0  0  0  0
   14.5420    7.7547    8.6802 C   0  0  0  0  0  0  0  0  0  0  0  0
   13.3481    7.5883    7.9724 C   0  0  0  0  0  0  0  0  0  0  0  0
   13.4711    6.6809    7.0452 C   0  0  0  0  0  0  0  0  0  0  0  0
   14.7369    6.0199    6.6839 C   0  0  0  0  0  0  0  0  0  0  0  0
   17.2474    3.4185    3.6949 C   0  0  0  0  0  0  0  0  0  0  0  0
   16.5677    3.8486    2.5696 C   0  0  0  0  0  0  0  0  0  0  0  0
   17.2136    4.3133    1.4294 C   0  0  0  0  0  0  0  0  0  0  0  0
   18.5927    4.4092    1.4130 C   0  0  0  0  0  0  0  0  0  0  0  0
   19.3107    3.8782    2.4817 C   0  0  0  0  0  0  0  0  0  0  0  0
   18.6590    3.3230    3.5689 C   0  0  0  0  0  0  0  0  0  0  0  0
   18.3723    6.1156    6.7591 C   0  0  0  0  0  0  0  0  0  0  0  0
   19.3520    6.4635    5.5854 C   0  0  2  0  0  0  0  0  0  0  0  0
   18.6873    7.0758    4.3119 C   0  0  0  0  0  0  0  0  0  0  0  0
   19.6119    7.5047    3.1342 C   0  0  0  0  0  0  0  0  0  0  0  0
   18.9772    7.8386    2.3016 H   0  0  0  0  0  0  0  0  0  0  0  0
   20.6450    8.6018    3.3393 C   0  0  0  0  0  0  0  0  0  0  0  0
   21.8499    8.5549    2.6033 C   0  0  0  0  0  0  0  0  0  0  0  0
   22.8537    9.5087    2.7942 C   0  0  0  0  0  0  0  0  0  0  0  0
   22.6663   10.5399    3.7085 C   0  0  0  0  0  0  0  0  0  0  0  0
   21.4749   10.6102    4.4327 C   0  0  0  0  0  0  0  0  0  0  0  0
   20.4713    9.6531    4.2458 C   0  0  0  0  0  0  0  0  0  0  0  0
   20.5841    5.5568    5.4455 C   0  0  0  0  0  0  0  0  0  0  0  0
   20.6239    4.2277    5.8574 C   0  0  0  0  0  0  0  0  0  0  0  0
   21.7644    3.4254    5.7185 C   0  0  0  0  0  0  0  0  0  0  0  0
   22.9496    3.9729    5.2551 C   0  0  0  0  0  0  0  0  0  0  0  0
   22.9789    5.3163    4.9233 C   0  0  0  0  0  0  0  0  0  0  0  0
   21.8143    6.0844    5.0234 C   0  0  0  0  0  0  0  0  0  0  0  0
    7.8828   13.1041    0.2636 H   0  0  0  0  0  0  0  0  0  0  0  0
    6.7570   12.7456    1.5780 H   0  0  0  0  0  0  0  0  0  0  0  0
    8.1081   10.6074   -0.1383 H   0  0  0  0  0  0  0  0  0  0  0  0
    6.0896   10.4979    2.0802 H   0  0  0  0  0  0  0  0  0  0  0  0
    6.0905    9.7538    0.5699 H   0  0  0  0  0  0  0  0  0  0  0  0
    6.1982    8.1618    2.5528 H   0  0  0  0  0  0  0  0  0  0  0  0
    6.8139   10.6879    3.8195 H   0  0  0  0  0  0  0  0  0  0  0  0
    8.1652   11.4837    5.5996 H   0  0  0  0  0  0  0  0  0  0  0  0
   10.1662   10.2108    6.3255 H   0  0  0  0  0  0  0  0  0  0  0  0
   10.7424    8.1017    5.1632 H   0  0  0  0  0  0  0  0  0  0  0  0
    9.4129    7.2914    3.2408 H   0  0  0  0  0  0  0  0  0  0  0  0
    8.6113   12.5542    3.1480 H   0  0  0  0  0  0  0  0  0  0  0  0
   10.7704   12.5312    4.3214 H   0  0  0  0  0  0  0  0  0  0  0  0
   12.7216   11.3555    3.3536 H   0  0  0  0  0  0  0  0  0  0  0  0
   12.5446   10.4259    1.0589 H   0  0  0  0  0  0  0  0  0  0  0  0
   10.3633   10.3179   -0.0763 H   0  0  0  0  0  0  0  0  0  0  0  0
    8.2750    7.8918    0.3737 H   0  0  0  0  0  0  0  0  0  0  0  0
    6.5208    7.6755    0.3278 H   0  0  0  0  0  0  0  0  0  0  0  0
    6.4763    5.4319    1.0112 H   0  0  0  0  0  0  0  0  0  0  0  0
    9.0080    4.2923    0.6605 H   0  0  0  0  0  0  0  0  0  0  0  0
    9.4061    5.6504    1.6643 H   0  0  0  0  0  0  0  0  0  0  0  0
    7.5898    3.2584    2.4115 H   0  0  0  0  0  0  0  0  0  0  0  0
    5.9387    4.1709    4.3774 H   0  0  0  0  0  0  0  0  0  0  0  0
    5.8723    5.1261    6.6739 H   0  0  0  0  0  0  0  0  0  0  0  0
    7.9413    5.8784    7.8286 H   0  0  0  0  0  0  0  0  0  0  0  0
   10.0837    5.7443    6.5901 H   0  0  0  0  0  0  0  0  0  0  0  0
   10.0227    5.1808    4.2814 H   0  0  0  0  0  0  0  0  0  0  0  0
    7.4770    7.7010   -1.5494 H   0  0  0  0  0  0  0  0  0  0  0  0
    7.5677    7.3185   -3.9145 H   0  0  0  0  0  0  0  0  0  0  0  0
    7.6765    5.0192   -4.8326 H   0  0  0  0  0  0  0  0  0  0  0  0
    7.6584    3.0970   -3.2798 H   0  0  0  0  0  0  0  0  0  0  0  0
    7.5357    3.4152   -0.8451 H   0  0  0  0  0  0  0  0  0  0  0  0
    9.6102    2.1584    1.7891 H   0  0  0  0  0  0  0  0  0  0  0  0
    9.5395    2.0582    3.5410 H   0  0  0  0  0  0  0  0  0  0  0  0
   11.6960    3.1387    1.6577 H   0  0  0  0  0  0  0  0  0  0  0  0
   12.3441    1.1024    2.5064 H   0  0  0  0  0  0  0  0  0  0  0  0
   11.9348    1.3536    4.1814 H   0  0  0  0  0  0  0  0  0  0  0  0
   14.5648    2.1252    2.7095 H   0  0  0  0  0  0  0  0  0  0  0  0
   13.7879   -0.2631    2.0800 H   0  0  0  0  0  0  0  0  0  0  0  0
   13.8883   -2.6255    2.7010 H   0  0  0  0  0  0  0  0  0  0  0  0
   14.7927   -3.3119    4.9140 H   0  0  0  0  0  0  0  0  0  0  0  0
   15.6011   -1.5856    6.5073 H   0  0  0  0  0  0  0  0  0  0  0  0
   15.2749    0.7387    6.0333 H   0  0  0  0  0  0  0  0  0  0  0  0
   11.8058    3.1309    5.3281 H   0  0  0  0  0  0  0  0  0  0  0  0
   13.2505    4.5811    6.0372 H   0  0  0  0  0  0  0  0  0  0  0  0
   13.8348    6.8963    4.6865 H   0  0  0  0  0  0  0  0  0  0  0  0
   12.4640    7.4913    2.8591 H   0  0  0  0  0  0  0  0  0  0  0  0
   11.3634    5.5534    1.7297 H   0  0  0  0  0  0  0  0  0  0  0  0
   14.6807    3.8804    4.4986 H   0  0  0  0  0  0  0  0  0  0  0  0
   14.4973    2.6637    5.7797 H   0  0  0  0  0  0  0  0  0  0  0  0
   16.8603    1.9184    5.0915 H   0  0  0  0  0  0  0  0  0  0  0  0
   16.3889    3.1507    7.0946 H   0  0  0  0  0  0  0  0  0  0  0  0
   17.9809    3.2712    6.5149 H   0  0  0  0  0  0  0  0  0  0  0  0
   17.2605    4.8694    7.9426 H   0  0  0  0  0  0  0  0  0  0  0  0
   16.5571    7.1328    9.0864 H   0  0  0  0  0  0  0  0  0  0  0  0
   14.5328    8.5090    9.4916 H   0  0  0  0  0  0  0  0  0  0  0  0
   12.4403    8.1429    8.1485 H   0  0  0  0  0  0  0  0  0  0  0  0
   12.4951    6.4779    6.5955 H   0  0  0  0  0  0  0  0  0  0  0  0
   14.8850    5.4277    5.7391 H   0  0  0  0  0  0  0  0  0  0  0  0
   15.4878    3.8723    2.5424 H   0  0  0  0  0  0  0  0  0  0  0  0
   16.6139    4.6242    0.5815 H   0  0  0  0  0  0  0  0  0  0  0  0
   19.0894    4.8876    0.5771 H   0  0  0  0  0  0  0  0  0  0  0  0
   20.4049    3.9513    2.4708 H   0  0  0  0  0  0  0  0  0  0  0  0
   19.2459    2.8282    4.3346 H   0  0  0  0  0  0  0  0  0  0  0  0
   19.0239    5.7632    7.5739 H   0  0  0  0  0  0  0  0  0  0  0  0
   18.0493    7.1091    7.0930 H   0  0  0  0  0  0  0  0  0  0  0  0
   19.8367    7.3539    6.0196 H   0  0  0  0  0  0  0  0  0  0  0  0
   17.9396    6.3823    3.9146 H   0  0  0  0  0  0  0  0  0  0  0  0
   18.1135    7.9615    4.6219 H   0  0  0  0  0  0  0  0  0  0  0  0
   20.1299    6.6113    2.7701 H   0  0  0  0  0  0  0  0  0  0  0  0
   22.0371    7.7353    1.9113 H   0  0  0  0  0  0  0  0  0  0  0  0
   23.7885    9.4375    2.2420 H   0  0  0  0  0  0  0  0  0  0  0  0
   23.4419   11.2830    3.8615 H   0  0  0  0  0  0  0  0  0  0  0  0
   21.3336   11.4085    5.1566 H   0  0  0  0  0  0  0  0  0  0  0  0
   19.5657    9.7304    4.8403 H   0  0  0  0  0  0  0  0  0  0  0  0
   19.7610    3.7676    6.3014 H   0  0  0  0  0  0  0  0  0  0  0  0
   21.7175    2.3746    5.9906 H   0  0  0  0  0  0  0  0  0  0  0  0
   23.8486    3.3687    5.1916 H   0  0  0  0  0  0  0  0  0  0  0  0
   23.9059    5.7877    4.6097 H   0  0  0  0  0  0  0  0  0  0  0  0
   21.9124    7.1400    4.8141 H   0  0  0  0  0  0  0  0  0  0  0  0
  1  2  1  0  0  0  0
  2  3  1  0  0  0  0
  2 83  1  0  0  0  0
  2 84  1  0  0  0  0
  3  4  1  0  0  0  0
  3 12  1  0  0  0  0
  3 85  1  6  0  0  0
  4  5  1  0  0  0  0
  4 86  1  0  0  0  0
  4 87  1  0  0  0  0
  5  6  1  0  0  0  0
  5 18  1  0  0  0  0
  5 88  1  1  0  0  0
  6  7  2  0  0  0  0
  6 11  1  0  0  0  0
  7  8  1  0  0  0  0
  7 89  1  0  0  0  0
  8  9  2  0  0  0  0
  8 90  1  0  0  0  0
  9 10  1  0  0  0  0
  9 91  1  0  0  0  0
 10 11  2  0  0  0  0
 10 92  1  0  0  0  0
 11 93  1  0  0  0  0
 12 13  2  0  0  0  0
 12 17  1  0  0  0  0
 13 14  1  0  0  0  0
 13 94  1  0  0  0  0
 14 15  2  0  0  0  0
 14 95  1  0  0  0  0
 15 16  1  0  0  0  0
 15 96  1  0  0  0  0
 16 17  2  0  0  0  0
 16 97  1  0  0  0  0
 17 98  1  0  0  0  0
 18 19  1  0  0  0  0
 18 99  1  0  0  0  0
 18100  1  0  0  0  0
 19 20  1  0  0  0  0
 19 28  1  0  0  0  0
 19101  1  1  0  0  0
 20 21  1  0  0  0  0
 20102  1  0  0  0  0
 20103  1  0  0  0  0
 21 22  1  0  0  0  0
 21 34  1  0  0  0  0
 21104  1  6  0  0  0
 22 23  2  0  0  0  0
 22 27  1  0  0  0  0
 23 24  1  0  0  0  0
 23105  1  0  0  0  0
 24 25  2  0  0  0  0
 24106  1  0  0  0  0
 25 26  1  0  0  0  0
 25107  1  0  0  0  0
 26 27  2  0  0  0  0
 26108  1  0  0  0  0
 27109  1  0  0  0  0
 28 29  2  0  0  0  0
 28 33  1  0  0  0  0
 29 30  1  0  0  0  0
 29110  1  0  0  0  0
 30 31  2  0  0  0  0
 30111  1  0  0  0  0
 31 32  1  0  0  0  0
 31112  1  0  0  0  0
 32 33  2  0  0  0  0
 32113  1  0  0  0  0
 33114  1  0  0  0  0
 34 35  1  0  0  0  0
 34115  1  0  0  0  0
 34116  1  0  0  0  0
 35 36  1  0  0  0  0
 35 44  1  0  0  0  0
 35117  1  6  0  0  0
 36 37  1  0  0  0  0
 36118  1  0  0  0  0
 36119  1  0  0  0  0
 37 38  1  0  0  0  0
 37 50  1  0  0  0  0
 37120  1  6  0  0  0
 38 39  2  0  0  0  0
 38 43  1  0  0  0  0
 39 40  1  0  0  0  0
 39121  1  0  0  0  0
 40 41  2  0  0  0  0
 40122  1  0  0  0  0
 41 42  1  0  0  0  0
 41123  1  0  0  0  0
 42 43  2  0  0  0  0
 42124  1  0  0  0  0
 43125  1  0  0  0  0
 44 45  2  0  0  0  0
 44 49  1  0  0  0  0
 45 46  1  0  0  0  0
 45126  1  0  0  0  0
 46 47  2  0  0  0  0
 46127  1  0  0  0  0
 47 48  1  0  0  0  0
 47128  1  0  0  0  0
 48 49  2  0  0  0  0
 48129  1  0  0  0  0
 49130  1  0  0  0  0
 50 51  1  0  0  0  0
 50131  1  0  0  0  0
 50132  1  0  0  0  0
 51 52  1  0  0  0  0
 51 60  1  0  0  0  0
 51133  1  1  0  0  0
 52 53  1  0  0  0  0
 52134  1  0  0  0  0
 52135  1  0  0  0  0
 53 54  1  0  0  0  0
 53 66  1  0  0  0  0
 53136  1  1  0  0  0
 54 55  2  0  0  0  0
 54 59  1  0  0  0  0
 55 56  1  0  0  0  0
 55137  1  0  0  0  0
 56 57  2  0  0  0  0
 56138  1  0  0  0  0
 57 58  1  0  0  0  0
 57139  1  0  0  0  0
 58 59  2  0  0  0  0
 58140  1  0  0  0  0
 59141  1  0  0  0  0
 60 61  2  0  0  0  0
 60 65  1  0  0  0  0
 61 62  1  0  0  0  0
 61142  1  0  0  0  0
 62 63  2  0  0  0  0
 62143  1  0  0  0  0
 63 64  1  0  0  0  0
 63144  1  0  0  0  0
 64 65  2  0  0  0  0
 64145  1  0  0  0  0
 65146  1  0  0  0  0
 66 67  1  0  0  0  0
 66147  1  0  0  0  0
 66148  1  0  0  0  0
 67 68  1  0  0  0  0
 67 77  1  0  0  0  0
 67149  1  1  0  0  0
 68 69  1  0  0  0  0
 68150  1  0  0  0  0
 68151  1  0  0  0  0
 69 70  1  0  0  0  0
 69 71  1  0  0  0  0
 69152  1  0  0  0  0
 71 72  2  0  0  0  0
 71 76  1  0  0  0  0
 72 73  1  0  0  0  0
 72153  1  0  0  0  0
 73 74  2  0  0  0  0
 73154  1  0  0  0  0
 74 75  1  0  0  0  0
 74155  1  0  0  0  0
 75 76  2  0  0  0  0
 75156  1  0  0  0  0
 76157  1  0  0  0  0
 77 78  2  0  0  0  0
 77 82  1  0  0  0  0
 78 79  1  0  0  0  0
 78158  1  0  0  0  0
 79 80  2  0  0  0  0
 79159  1  0  0  0  0
 80 81  1  0  0  0  0
 80160  1  0  0  0  0
 81 82  2  0  0  0  0
 81161  1  0  0  0  0
 82162  1  0  0  0  0
M  END
$$$$
